18

C     -2.397574    0.184991    0.570126
C     -1.613834   -0.186807   -0.693846
C     -0.170476   -0.145720   -0.351847
C      0.531515   -1.230001    0.124421
C      1.885278   -1.149726    0.433472
C      2.490999    0.070180    0.239450
C      1.840767    1.185128   -0.232746
C      0.496678    1.065144   -0.528291
H     -2.247899    1.290056    0.744198
H     -3.453772   -0.083483    0.462189
H     -1.900081   -0.313004    1.430534
H     -1.884967   -1.231143   -0.948741
H     -1.839532    0.528500   -1.513350
H      0.005838   -2.167034    0.258666
H      2.393779   -2.028923    0.804783
H      3.542033    0.135214    0.478616
H      2.370609    2.141295   -0.371351
H     -0.049361    1.935335   -0.906280
